# opt freq

SR_Int2B_iii_11

0 1
C        0.52440700       1.70198600       1.63289100
C       -0.53188800       0.72451200       1.44143000
C       -1.88366700       1.09013100       1.54687400
C       -2.15864600       2.42020700       1.81023300
C       -1.11621600       3.41074200       2.01463900
C        0.19458900       3.06217500       1.93485900
C        1.71186800       1.07184900       1.37553000
C        1.43046500      -0.33275800       1.00286000
N       -0.00049600      -0.45790400       1.13478400
H       -0.57275200      -1.24637800       0.78901200
C        3.11729600       1.50722500       1.46245800
H        3.55344500       1.44691400       0.44992800
H        3.21518800       2.52691000       1.85491500
C        3.84120200       0.48518400       2.35204800
H        4.91978200       0.69481200       2.32963800
H        3.50210600       0.60305800       3.40495600
C        2.26336000      -1.33955700       1.85267800
N        3.64178900      -0.87060800       1.88065400
H        1.73235500      -0.45855600      -0.05641300
H        1.79654100      -1.36117600       2.86174700
O        1.67126200      -0.81619000      -2.24005400
C        2.92772600      -0.69244900      -2.09603300
O        3.47151400       0.15162800      -1.36944200
C        3.79534800      -1.65883900      -2.89558700
H        3.30894000      -2.64166800      -2.96200000
H        3.89601600      -1.26995300      -3.91963500
H        4.79847700      -1.74251700      -2.45674800
H       -2.68727800       0.37553500       1.37894600
H       -1.38957000       4.44928700       2.19097100
H        0.98597400       3.80513100       2.04819800
O       -3.44412800       2.76134600       1.86053500
C       -3.83818400       4.09183200       2.13181000
H       -4.93303700       4.08721100       2.12569900
H       -3.48418000       4.41690600       3.12174800
H       -3.47507700       4.78342800       1.35954200
C        1.26357100       2.81148700      -1.34666000
C       -0.07864400       2.41418900      -1.52382200
C        1.56716800       4.12911800      -1.03966100
H        2.06159600       2.06118800      -1.42030400
C       -1.09071600       3.38140300      -1.41615400
C        0.57017100       5.09893000      -0.92643400
C       -0.74644900       4.69946000      -1.12016400
H       -2.13142300       3.09808300      -1.55125600
H        0.81847600       6.13453900      -0.68835900
C       -2.02186200      -2.08736500      -2.06320500
H       -2.77468300      -1.80297300      -2.81378900
C       -2.70752000      -2.29951900      -0.69937100
O       -2.06944500      -2.16663400       0.34232400
N       -3.98954200      -2.72396300      -0.70263000
C       -1.29797600      -3.38027300      -2.55557900
C       -1.82471500       5.73120700      -0.93625900
F       -3.04427400       5.24943100      -1.17171000
F       -1.64630600       6.79273700      -1.71977100
F       -1.83244600       6.19367200       0.33096600
C        2.98360500       4.52260700      -0.72243000
F        3.86756800       3.60597900      -1.09859800
F        3.13628600       4.69656300       0.60543400
F        3.31810700       5.68001300      -1.29292000
N       -0.26720200       1.06194700      -1.77004700
C       -1.38447100       0.27395400      -1.81668000
N       -1.06065000      -1.02542300      -1.95138600
S       -2.98841300       0.78191300      -1.72921600
H        0.61389200       0.51995100      -1.91844300
H       -0.06308800      -1.25566600      -2.01068800
C       -6.28564400      -2.88313200      -1.21811900
C       -5.92956700      -3.86124700      -0.10510400
C       -4.64662000      -3.25981900       0.51132300
C       -4.92070700      -2.56359100      -1.82976200
H       -6.98267300      -3.29708700      -1.95740400
H       -6.73578200      -1.97510500      -0.79231600
H       -5.68811900      -4.85024400      -0.52883600
H       -6.71704200      -3.98835900       0.64913400
H       -4.85468100      -1.54055600      -2.22999600
H       -4.68303700      -3.27355900      -2.63587900
C       -5.02764400      -2.14755500       1.49083000
C       -5.48362300      -2.47322400       2.77489100
C       -5.00637000      -0.80230300       1.11376400
C       -5.90521000      -1.48120000       3.65728400
H       -5.51578200      -3.51588300       3.09598800
C       -5.43024100       0.19308100       1.99575000
H       -4.63170300      -0.51786600       0.12725400
C       -5.88027500      -0.14156300       3.27041100
H       -6.25356100      -1.75790600       4.65378000
H       -5.37975700       1.23575300       1.68173200
H       -6.20749200       0.63634200       3.96199100
C       -3.79831700      -4.34689000       1.17726700
H       -4.41816100      -4.93467200       1.86792300
H       -3.41192800      -5.03353900       0.40972100
H       -2.95406300      -3.91462600       1.72490100
C       -0.53764800      -3.05006700      -3.84988400
H        0.30649100      -2.36806400      -3.67157900
H       -0.13618500      -3.97963800      -4.28153300
H       -1.20698000      -2.59204900      -4.59458000
C       -2.32360700      -4.47523800      -2.86533600
H       -2.94082200      -4.72362200      -1.98945000
H       -2.98534000      -4.17710400      -3.69287800
H       -1.79716600      -5.38967900      -3.17513600
C       -0.31264100      -3.89734000      -1.50313900
H       -0.81381500      -4.19071300      -0.57124800
H        0.20271700      -4.78808500      -1.89386400
H        0.45946600      -3.14893800      -1.25374200
C        4.63125300      -1.77085400       2.44460600
H        4.80395200      -1.55731200       3.51976900
H        4.25018200      -2.80014300       2.39914700
C        5.95570000      -1.71602700       1.70480200
C        6.05192600      -1.15667400       0.42562900
C        7.09920100      -2.26586800       2.29515300
C        7.27532300      -1.16108700      -0.24866900
H        5.16915200      -0.70694900      -0.04081300
C        8.31617800      -2.27381800       1.61790800
H        7.03350200      -2.69435000       3.29886900
C        8.40767500      -1.72080800       0.33965100
H        7.33743300      -0.71473900      -1.24306900
H        9.19843400      -2.70835100       2.09107400
H        9.36129500      -1.72103300      -0.19064300
C        2.17325200      -2.69890300       1.22744200
C        2.92975100      -3.14099400       0.15379700
H        3.71808300      -2.64511700      -0.40948500
N        1.61214800      -4.83882300       0.75414900
C        3.05882900      -5.29115400      -1.11815100
H        3.07038300      -6.31682500      -0.73382700
H        2.41579800      -5.24205700      -2.00850500
H        4.07576100      -4.98283500      -1.38783600
C        1.36412900      -3.80971100       1.55436900
H        0.61855000      -3.89548000       2.34333600
N        2.56141200      -4.41947700      -0.07718200


